clear
set defaultbasefrequency=50.0
new circuit.singapore_geylang phases=1 bus1=0 basekv=66.0 mvasc3=9999999999 9999999999
new linecode.singapore_line_type_1 nphases=1.0 rmatrix = [0.07663351] xmatrix = [0.10833000] cmatrix = [0.00000000]
new linecode.singapore_line_type_3 nphases=1.0 rmatrix = [0.13015600] xmatrix = [0.10833000] cmatrix = [0.00000000]
new line.1 phases=1 bus1=1.1 bus2=21.1 linecode=singapore_line_type_1 length=1.1201850718997362
new line.2 phases=1 bus1=21.1 bus2=53.1 linecode=singapore_line_type_1 length=0.0838163957420871
new line.3 phases=1 bus1=53.1 bus2=130.1 linecode=singapore_line_type_1 length=0.9338643789830052
new line.4 phases=1 bus1=130.1 bus2=294.1 linecode=singapore_line_type_1 length=0.2190494196280779
new line.5 phases=1 bus1=294.1 bus2=33.1 linecode=singapore_line_type_1 length=0.4662866995308994
new line.6 phases=1 bus1=33.1 bus2=32.1 linecode=singapore_line_type_1 length=0.079635799388032
new line.7 phases=1 bus1=32.1 bus2=323.1 linecode=singapore_line_type_1 length=0.1402154252206003
new line.8 phases=1 bus1=323.1 bus2=322.1 linecode=singapore_line_type_1 length=0.1060052373124536
new line.9 phases=1 bus1=322.1 bus2=319.1 linecode=singapore_line_type_3 length=0.2406484250282187
new line.10 phases=1 bus1=1.1 bus2=37.1 linecode=singapore_line_type_1 length=0.3375468327854358
new line.11 phases=1 bus1=37.1 bus2=39.1 linecode=singapore_line_type_1 length=0.5661074556669603
new line.12 phases=1 bus1=39.1 bus2=41.1 linecode=singapore_line_type_1 length=0.1509921282594676
new line.13 phases=1 bus1=41.1 bus2=57.1 linecode=singapore_line_type_1 length=0.0775914285023279
new line.14 phases=1 bus1=57.1 bus2=314.1 linecode=singapore_line_type_1 length=0.7761283933157396
new line.15 phases=1 bus1=314.1 bus2=316.1 linecode=singapore_line_type_1 length=0.1001359493521669
new line.16 phases=1 bus1=316.1 bus2=317.1 linecode=singapore_line_type_1 length=0.1272850119985435
new line.17 phases=1 bus1=317.1 bus2=125.1 linecode=singapore_line_type_1 length=0.135645434219648
new line.18 phases=1 bus1=125.1 bus2=124.1 linecode=singapore_line_type_1 length=0.0820770594840842
new line.19 phases=1 bus1=124.1 bus2=318.1 linecode=singapore_line_type_1 length=0.1038738713333605
new line.20 phases=1 bus1=318.1 bus2=296.1 linecode=singapore_line_type_1 length=0.113103723590316
new line.21 phases=1 bus1=296.1 bus2=295.1 linecode=singapore_line_type_1 length=0.0945229050158653
new line.22 phases=1 bus1=295.1 bus2=279.1 linecode=singapore_line_type_3 length=0.0912980511817393
new line.23 phases=1 bus1=295.1 bus2=297.1 linecode=singapore_line_type_3 length=0.201148630157328
new line.24 phases=1 bus1=314.1 bus2=315.1 linecode=singapore_line_type_3 length=0.1556237700284627
new line.25 phases=1 bus1=1.1 bus2=38.1 linecode=singapore_line_type_1 length=0.7958136788481869
new line.26 phases=1 bus1=38.1 bus2=126.1 linecode=singapore_line_type_1 length=1.5332399319396002
new line.27 phases=1 bus1=126.1 bus2=127.1 linecode=singapore_line_type_1 length=0.095787108165247
new line.28 phases=1 bus1=127.1 bus2=307.1 linecode=singapore_line_type_1 length=0.1909067049972881
new line.29 phases=1 bus1=307.1 bus2=281.1 linecode=singapore_line_type_1 length=0.0919893618232832
new line.30 phases=1 bus1=281.1 bus2=305.1 linecode=singapore_line_type_3 length=0.0939466226510366
new line.31 phases=1 bus1=127.1 bus2=306.1 linecode=singapore_line_type_3 length=0.1329221190712557
new line.32 phases=1 bus1=1.1 bus2=40.1 linecode=singapore_line_type_1 length=1.0586305467615107
new line.33 phases=1 bus1=40.1 bus2=22.1 linecode=singapore_line_type_1 length=0.0936833032243314
new line.34 phases=1 bus1=22.1 bus2=15.1 linecode=singapore_line_type_1 length=0.0249587497998406
new line.35 phases=1 bus1=15.1 bus2=10.1 linecode=singapore_line_type_3 length=0.1101904344199421
new line.36 phases=1 bus1=1.1 bus2=43.1 linecode=singapore_line_type_3 length=0.640724331765878
new line.37 phases=1 bus1=43.1 bus2=5.1 linecode=singapore_line_type_1 length=0.0513973342302446
new line.38 phases=1 bus1=5.1 bus2=272.1 linecode=singapore_line_type_3 length=0.0962490902955824
new line.39 phases=1 bus1=272.1 bus2=273.1 linecode=singapore_line_type_3 length=0.1241513128291115
new line.40 phases=1 bus1=1.1 bus2=56.1 linecode=singapore_line_type_1 length=0.1212056123139086
new line.41 phases=1 bus1=56.1 bus2=11.1 linecode=singapore_line_type_1 length=0.1352643549607687
new line.42 phases=1 bus1=11.1 bus2=36.1 linecode=singapore_line_type_3 length=0.2022487280769243
new line.43 phases=1 bus1=1.1 bus2=58.1 linecode=singapore_line_type_1 length=1.117824098444327
new line.44 phases=1 bus1=58.1 bus2=298.1 linecode=singapore_line_type_1 length=1.4321522732920082
new line.45 phases=1 bus1=298.1 bus2=299.1 linecode=singapore_line_type_1 length=0.1149188445960244
new line.46 phases=1 bus1=299.1 bus2=292.1 linecode=singapore_line_type_1 length=0.155576236989175
new line.47 phases=1 bus1=292.1 bus2=291.1 linecode=singapore_line_type_1 length=0.1569255068010873
new line.48 phases=1 bus1=291.1 bus2=290.1 linecode=singapore_line_type_1 length=0.1334834177567668
new line.49 phases=1 bus1=290.1 bus2=113.1 linecode=singapore_line_type_1 length=0.0853990820990755
new line.50 phases=1 bus1=113.1 bus2=286.1 linecode=singapore_line_type_3 length=0.1244294742190246
new line.51 phases=1 bus1=286.1 bus2=287.1 linecode=singapore_line_type_3 length=0.1199756233447706
new line.52 phases=1 bus1=1.1 bus2=59.1 linecode=singapore_line_type_1 length=0.7123172831782721
new line.53 phases=1 bus1=59.1 bus2=60.1 linecode=singapore_line_type_1 length=0.1702170969242427
new line.54 phases=1 bus1=60.1 bus2=46.1 linecode=singapore_line_type_1 length=0.464653580533749
new line.55 phases=1 bus1=46.1 bus2=45.1 linecode=singapore_line_type_1 length=0.1573508400226997
new line.56 phases=1 bus1=45.1 bus2=62.1 linecode=singapore_line_type_1 length=0.1848896748990471
new line.57 phases=1 bus1=62.1 bus2=54.1 linecode=singapore_line_type_1 length=0.400547363511843
new line.58 phases=1 bus1=54.1 bus2=123.1 linecode=singapore_line_type_1 length=0.5418072223600965
new line.59 phases=1 bus1=123.1 bus2=16.1 linecode=singapore_line_type_1 length=0.2400109578543681
new line.60 phases=1 bus1=16.1 bus2=17.1 linecode=singapore_line_type_1 length=0.1209479291636283
new line.61 phases=1 bus1=17.1 bus2=102.1 linecode=singapore_line_type_1 length=0.2234280450376377
new line.62 phases=1 bus1=102.1 bus2=103.1 linecode=singapore_line_type_1 length=0.0971942597071909
new line.63 phases=1 bus1=103.1 bus2=92.1 linecode=singapore_line_type_1 length=0.0549434318668484
new line.64 phases=1 bus1=1.1 bus2=66.1 linecode=singapore_line_type_3 length=0.2187827557291668
new line.65 phases=1 bus1=66.1 bus2=67.1 linecode=singapore_line_type_1 length=0.1743278177818576
new line.66 phases=1 bus1=67.1 bus2=30.1 linecode=singapore_line_type_1 length=0.6504824993395897
new line.67 phases=1 bus1=30.1 bus2=31.1 linecode=singapore_line_type_1 length=0.104727358067919
new line.68 phases=1 bus1=31.1 bus2=14.1 linecode=singapore_line_type_1 length=0.0268053662973079
new line.69 phases=1 bus1=14.1 bus2=19.1 linecode=singapore_line_type_3 length=0.1713172184373437
new line.70 phases=1 bus1=66.1 bus2=69.1 linecode=singapore_line_type_3 length=0.2393927860015646
new line.71 phases=1 bus1=1.1 bus2=68.1 linecode=singapore_line_type_1 length=0.3041878580262389
new line.72 phases=1 bus1=68.1 bus2=29.1 linecode=singapore_line_type_1 length=0.48405965152887
new line.73 phases=1 bus1=29.1 bus2=18.1 linecode=singapore_line_type_1 length=0.3646695171714705
new line.74 phases=1 bus1=18.1 bus2=20.1 linecode=singapore_line_type_1 length=0.0935767202801934
new line.75 phases=1 bus1=20.1 bus2=313.1 linecode=singapore_line_type_1 length=0.5371976088683673
new line.76 phases=1 bus1=313.1 bus2=311.1 linecode=singapore_line_type_1 length=0.196659830997962
new line.77 phases=1 bus1=311.1 bus2=312.1 linecode=singapore_line_type_1 length=0.1429078863662529
new line.78 phases=1 bus1=312.1 bus2=288.1 linecode=singapore_line_type_1 length=0.268062844008132
new line.79 phases=1 bus1=288.1 bus2=280.1 linecode=singapore_line_type_1 length=0.0530829424109986
new line.80 phases=1 bus1=288.1 bus2=289.1 linecode=singapore_line_type_3 length=0.1188413142539995
new line.81 phases=1 bus1=289.1 bus2=72.1 linecode=singapore_line_type_3 length=0.1207081197108208
new line.82 phases=1 bus1=72.1 bus2=35.1 linecode=singapore_line_type_3 length=0.1135940704057723
new line.83 phases=1 bus1=280.1 bus2=77.1 linecode=singapore_line_type_3 length=0.11742832068039
new line.84 phases=1 bus1=280.1 bus2=129.1 linecode=singapore_line_type_3 length=0.1405916790215648
new line.85 phases=1 bus1=1.1 bus2=70.1 linecode=singapore_line_type_3 length=1.3617209684101093
new line.86 phases=1 bus1=70.1 bus2=23.1 linecode=singapore_line_type_1 length=0.4000078275965451
new line.87 phases=1 bus1=23.1 bus2=131.1 linecode=singapore_line_type_1 length=0.4740146695501223
new line.88 phases=1 bus1=131.1 bus2=128.1 linecode=singapore_line_type_1 length=0.2754964911057131
new line.89 phases=1 bus1=128.1 bus2=308.1 linecode=singapore_line_type_1 length=0.1770065506792391
new line.90 phases=1 bus1=308.1 bus2=95.1 linecode=singapore_line_type_3 length=0.2321092415408346
new line.91 phases=1 bus1=95.1 bus2=309.1 linecode=singapore_line_type_3 length=0.1266099945172618
new line.92 phases=1 bus1=309.1 bus2=304.1 linecode=singapore_line_type_3 length=0.1405797751289922
new line.93 phases=1 bus1=304.1 bus2=301.1 linecode=singapore_line_type_3 length=0.1291521681486999
new line.94 phases=1 bus1=301.1 bus2=303.1 linecode=singapore_line_type_3 length=0.1231077533644507
new line.95 phases=1 bus1=303.1 bus2=300.1 linecode=singapore_line_type_3 length=0.1371827574621435
new line.96 phases=1 bus1=300.1 bus2=293.1 linecode=singapore_line_type_3 length=0.1275849344358531
new line.97 phases=1 bus1=293.1 bus2=326.1 linecode=singapore_line_type_3 length=0.2102793200369321
new line.98 phases=1 bus1=326.1 bus2=327.1 linecode=singapore_line_type_3 length=0.106827466847941
new line.99 phases=1 bus1=327.1 bus2=325.1 linecode=singapore_line_type_3 length=0.1551616553235914
new line.100 phases=1 bus1=308.1 bus2=101.1 linecode=singapore_line_type_3 length=0.1891536141961073
new line.101 phases=1 bus1=101.1 bus2=97.1 linecode=singapore_line_type_3 length=0.179173819328643
new line.102 phases=1 bus1=325.1 bus2=321.1 linecode=singapore_line_type_3 length=0.2625758446506949
new line.103 phases=1 bus1=325.1 bus2=324.1 linecode=singapore_line_type_3 length=0.2019989687550969
new line.104 phases=1 bus1=23.1 bus2=64.1 linecode=singapore_line_type_3 length=0.1447005135309106
new line.105 phases=1 bus1=97.1 bus2=98.1 linecode=singapore_line_type_3 length=0.1276631794711822
new line.106 phases=1 bus1=95.1 bus2=96.1 linecode=singapore_line_type_3 length=0.1531296303914297
new line.107 phases=1 bus1=64.1 bus2=65.1 linecode=singapore_line_type_3 length=0.1312418642812408
new line.108 phases=1 bus1=326.1 bus2=320.1 linecode=singapore_line_type_3 length=0.296830219750204
new line.109 phases=1 bus1=1.1 bus2=274.1 linecode=singapore_line_type_1 length=0.9630103018484848
new line.110 phases=1 bus1=274.1 bus2=367.1 linecode=singapore_line_type_1 length=0.1454485048114874
new line.111 phases=1 bus1=367.1 bus2=329.1 linecode=singapore_line_type_1 length=0.1108820959511067
new line.112 phases=1 bus1=329.1 bus2=370.1 linecode=singapore_line_type_3 length=0.0596137186279929
new line.113 phases=1 bus1=370.1 bus2=369.1 linecode=singapore_line_type_3 length=0.0698446038059086
new line.114 phases=1 bus1=1.1 bus2=347.1 linecode=singapore_line_type_1 length=0.4067614634208263
new line.115 phases=1 bus1=347.1 bus2=346.1 linecode=singapore_line_type_1 length=0.128349458869954
new line.116 phases=1 bus1=346.1 bus2=348.1 linecode=singapore_line_type_1 length=0.0960566251229218
new line.117 phases=1 bus1=348.1 bus2=349.1 linecode=singapore_line_type_1 length=0.0770351274534277
new line.118 phases=1 bus1=349.1 bus2=363.1 linecode=singapore_line_type_1 length=0.2761278421061202
new line.119 phases=1 bus1=363.1 bus2=330.1 linecode=singapore_line_type_1 length=0.1692177092126197
new line.120 phases=1 bus1=330.1 bus2=338.1 linecode=singapore_line_type_1 length=0.0986352768575219
new line.121 phases=1 bus1=338.1 bus2=355.1 linecode=singapore_line_type_1 length=0.1160127103809304
new line.122 phases=1 bus1=355.1 bus2=379.1 linecode=singapore_line_type_3 length=0.0987132529724339
new line.123 phases=1 bus1=379.1 bus2=377.1 linecode=singapore_line_type_3 length=0.0991599226686461
new line.124 phases=1 bus1=1.1 bus2=353.1 linecode=singapore_line_type_3 length=0.5145891469576934
new line.125 phases=1 bus1=353.1 bus2=345.1 linecode=singapore_line_type_1 length=0.0566668272947344
new line.126 phases=1 bus1=345.1 bus2=357.1 linecode=singapore_line_type_1 length=0.1692325842104484
new line.127 phases=1 bus1=357.1 bus2=374.1 linecode=singapore_line_type_1 length=0.1907283914535602
new line.128 phases=1 bus1=374.1 bus2=331.1 linecode=singapore_line_type_1 length=0.2861359561494195
new line.129 phases=1 bus1=374.1 bus2=373.1 linecode=singapore_line_type_3 length=0.1536748560733729
new line.130 phases=1 bus1=373.1 bus2=354.1 linecode=singapore_line_type_3 length=0.2459904946591412
new line.131 phases=1 bus1=354.1 bus2=375.1 linecode=singapore_line_type_3 length=0.2982467439470717
new line.132 phases=1 bus1=375.1 bus2=332.1 linecode=singapore_line_type_3 length=0.4560902391831468
new line.133 phases=1 bus1=331.1 bus2=342.1 linecode=singapore_line_type_3 length=0.1189856611208475
new line.134 phases=1 bus1=357.1 bus2=358.1 linecode=singapore_line_type_3 length=0.0921896900997889
new line.135 phases=1 bus1=332.1 bus2=376.1 linecode=singapore_line_type_3 length=0.2585488760478336
new line.136 phases=1 bus1=342.1 bus2=341.1 linecode=singapore_line_type_3 length=0.4125553105868957
new line.137 phases=1 bus1=1.1 bus2=359.1 linecode=singapore_line_type_1 length=0.6662417100940067
new line.138 phases=1 bus1=359.1 bus2=333.1 linecode=singapore_line_type_1 length=0.3252228299933031
new line.139 phases=1 bus1=333.1 bus2=334.1 linecode=singapore_line_type_1 length=0.2024034281607836
new line.140 phases=1 bus1=334.1 bus2=335.1 linecode=singapore_line_type_1 length=0.2397146406172947
new line.141 phases=1 bus1=335.1 bus2=336.1 linecode=singapore_line_type_1 length=0.1777381334978145
new line.142 phases=1 bus1=336.1 bus2=337.1 linecode=singapore_line_type_1 length=0.1303921130900808
new line.143 phases=1 bus1=337.1 bus2=378.1 linecode=singapore_line_type_1 length=0.1063116060428504
new line.144 phases=1 bus1=378.1 bus2=387.1 linecode=singapore_line_type_1 length=0.1285696870148939
new line.145 phases=1 bus1=387.1 bus2=386.1 linecode=singapore_line_type_1 length=0.1509719698848912
new line.146 phases=1 bus1=386.1 bus2=388.1 linecode=singapore_line_type_1 length=0.1535526952739334
new line.147 phases=1 bus1=388.1 bus2=390.1 linecode=singapore_line_type_1 length=0.0938850490448819
new line.148 phases=1 bus1=390.1 bus2=340.1 linecode=singapore_line_type_1 length=0.1810695409311239
new line.149 phases=1 bus1=340.1 bus2=344.1 linecode=singapore_line_type_1 length=0.1142804450457015
new line.150 phases=1 bus1=344.1 bus2=389.1 linecode=singapore_line_type_3 length=0.106078742148727
new line.151 phases=1 bus1=389.1 bus2=328.1 linecode=singapore_line_type_3 length=0.1696452209558795
new line.152 phases=1 bus1=386.1 bus2=384.1 linecode=singapore_line_type_3 length=0.1298174279584152
new line.153 phases=1 bus1=384.1 bus2=385.1 linecode=singapore_line_type_3 length=0.1086492676342643
new line.154 phases=1 bus1=387.1 bus2=339.1 linecode=singapore_line_type_3 length=0.1252678257999198
new line.155 phases=1 bus1=339.1 bus2=382.1 linecode=singapore_line_type_3 length=0.0736327118849044
new line.156 phases=1 bus1=385.1 bus2=383.1 linecode=singapore_line_type_3 length=0.0880601287227147
new line.157 phases=1 bus1=1.1 bus2=361.1 linecode=singapore_line_type_1 length=0.8017601445379517
new line.158 phases=1 bus1=361.1 bus2=360.1 linecode=singapore_line_type_1 length=0.1028169993307362
new line.159 phases=1 bus1=360.1 bus2=362.1 linecode=singapore_line_type_1 length=0.1044816222815399
new line.160 phases=1 bus1=362.1 bus2=365.1 linecode=singapore_line_type_1 length=0.0908940289418242
new line.161 phases=1 bus1=365.1 bus2=364.1 linecode=singapore_line_type_1 length=0.1177862887392951
new line.162 phases=1 bus1=364.1 bus2=380.1 linecode=singapore_line_type_1 length=0.1053731207302465
new line.163 phases=1 bus1=380.1 bus2=356.1 linecode=singapore_line_type_1 length=0.1259539702957092
new line.164 phases=1 bus1=365.1 bus2=366.1 linecode=singapore_line_type_3 length=0.1003773076594428
new line.165 phases=1 bus1=365.1 bus2=368.1 linecode=singapore_line_type_3 length=0.088172928446966
new line.166 phases=1 bus1=356.1 bus2=381.1 linecode=singapore_line_type_3 length=0.1275496614598427
new line.167 phases=1 bus1=2.1 bus2=71.1 linecode=singapore_line_type_1 length=0.4276787816331994
new line.168 phases=1 bus1=71.1 bus2=169.1 linecode=singapore_line_type_1 length=0.2755558585673536
new line.169 phases=1 bus1=169.1 bus2=170.1 linecode=singapore_line_type_1 length=0.1136039014712072
new line.170 phases=1 bus1=170.1 bus2=172.1 linecode=singapore_line_type_1 length=0.1430998406069047
new line.171 phases=1 bus1=172.1 bus2=135.1 linecode=singapore_line_type_1 length=0.0613616196989198
new line.172 phases=1 bus1=135.1 bus2=154.1 linecode=singapore_line_type_3 length=0.0558498050657483
new line.173 phases=1 bus1=154.1 bus2=155.1 linecode=singapore_line_type_3 length=0.1211007159115621
new line.174 phases=1 bus1=170.1 bus2=173.1 linecode=singapore_line_type_3 length=0.1548010923021664
new line.175 phases=1 bus1=135.1 bus2=153.1 linecode=singapore_line_type_3 length=0.0514093759328182
new line.176 phases=1 bus1=2.1 bus2=110.1 linecode=singapore_line_type_1 length=0.1489483267609159
new line.177 phases=1 bus1=110.1 bus2=219.1 linecode=singapore_line_type_1 length=0.26991911031027
new line.178 phases=1 bus1=219.1 bus2=218.1 linecode=singapore_line_type_1 length=0.1115496730591706
new line.179 phases=1 bus1=218.1 bus2=247.1 linecode=singapore_line_type_1 length=0.1197660645571733
new line.180 phases=1 bus1=247.1 bus2=213.1 linecode=singapore_line_type_1 length=0.4844222847684313
new line.181 phases=1 bus1=213.1 bus2=206.1 linecode=singapore_line_type_1 length=0.1251035530523492
new line.182 phases=1 bus1=247.1 bus2=217.1 linecode=singapore_line_type_3 length=0.189667757964664
new line.183 phases=1 bus1=2.1 bus2=117.1 linecode=singapore_line_type_3 length=0.4222191330369
new line.184 phases=1 bus1=117.1 bus2=107.1 linecode=singapore_line_type_1 length=0.2428061435820574
new line.185 phases=1 bus1=107.1 bus2=106.1 linecode=singapore_line_type_3 length=0.1015015647937501
new line.186 phases=1 bus1=106.1 bus2=108.1 linecode=singapore_line_type_3 length=0.1243335836714608
new line.187 phases=1 bus1=108.1 bus2=264.1 linecode=singapore_line_type_3 length=0.1906369251990037
new line.188 phases=1 bus1=264.1 bus2=105.1 linecode=singapore_line_type_3 length=0.2362370653097039
new line.189 phases=1 bus1=107.1 bus2=118.1 linecode=singapore_line_type_3 length=0.1258762516664147
new line.190 phases=1 bus1=118.1 bus2=8.1 linecode=singapore_line_type_3 length=0.1215855158566043
new line.191 phases=1 bus1=105.1 bus2=263.1 linecode=singapore_line_type_3 length=0.1279535951186916
new line.192 phases=1 bus1=8.1 bus2=157.1 linecode=singapore_line_type_3 length=0.2369884136795741
new line.193 phases=1 bus1=2.1 bus2=134.1 linecode=singapore_line_type_1 length=0.7213443657724518
new line.194 phases=1 bus1=134.1 bus2=166.1 linecode=singapore_line_type_3 length=0.0474869543523511
new line.195 phases=1 bus1=166.1 bus2=165.1 linecode=singapore_line_type_3 length=0.0557524746157483
new line.196 phases=1 bus1=165.1 bus2=168.1 linecode=singapore_line_type_3 length=0.1076649417957315
new line.197 phases=1 bus1=168.1 bus2=151.1 linecode=singapore_line_type_3 length=0.1120086242991798
new line.198 phases=1 bus1=151.1 bus2=152.1 linecode=singapore_line_type_3 length=0.0749303594894716
new line.199 phases=1 bus1=134.1 bus2=167.1 linecode=singapore_line_type_3 length=0.0727038901916579
new line.200 phases=1 bus1=2.1 bus2=158.1 linecode=singapore_line_type_1 length=0.7761369653548934
new line.201 phases=1 bus1=158.1 bus2=208.1 linecode=singapore_line_type_1 length=0.2194813791524196
new line.202 phases=1 bus1=208.1 bus2=121.1 linecode=singapore_line_type_3 length=0.117389221676256
new line.203 phases=1 bus1=121.1 bus2=55.1 linecode=singapore_line_type_3 length=0.2041577376140891
new line.204 phases=1 bus1=55.1 bus2=42.1 linecode=singapore_line_type_3 length=0.1040805080371681
new line.205 phases=1 bus1=2.1 bus2=160.1 linecode=singapore_line_type_1 length=0.5717726783554952
new line.206 phases=1 bus1=160.1 bus2=210.1 linecode=singapore_line_type_1 length=0.1846160492373305
new line.207 phases=1 bus1=210.1 bus2=161.1 linecode=singapore_line_type_3 length=0.1226674310655903
new line.208 phases=1 bus1=161.1 bus2=159.1 linecode=singapore_line_type_3 length=0.1066830479198066
new line.209 phases=1 bus1=161.1 bus2=143.1 linecode=singapore_line_type_3 length=0.1428731276931243
new line.210 phases=1 bus1=2.1 bus2=163.1 linecode=singapore_line_type_1 length=0.6133042961632098
new line.211 phases=1 bus1=163.1 bus2=164.1 linecode=singapore_line_type_1 length=0.1135642745376786
new line.212 phases=1 bus1=164.1 bus2=150.1 linecode=singapore_line_type_1 length=0.1607276183315092
new line.213 phases=1 bus1=150.1 bus2=148.1 linecode=singapore_line_type_1 length=0.1576091819531709
new line.214 phases=1 bus1=148.1 bus2=146.1 linecode=singapore_line_type_1 length=0.0976208286224851
new line.215 phases=1 bus1=146.1 bus2=76.1 linecode=singapore_line_type_1 length=0.0761071766747792
new line.216 phases=1 bus1=76.1 bus2=145.1 linecode=singapore_line_type_3 length=0.0666889465955888
new line.217 phases=1 bus1=2.1 bus2=171.1 linecode=singapore_line_type_1 length=0.736864493026683
new line.218 phases=1 bus1=171.1 bus2=104.1 linecode=singapore_line_type_1 length=0.1886419376367068
new line.219 phases=1 bus1=104.1 bus2=156.1 linecode=singapore_line_type_1 length=0.1355305033478567
new line.220 phases=1 bus1=156.1 bus2=132.1 linecode=singapore_line_type_1 length=0.1182502434503935
new line.221 phases=1 bus1=2.1 bus2=310.1 linecode=singapore_line_type_1 length=0.4496448980305906
new line.222 phases=1 bus1=310.1 bus2=162.1 linecode=singapore_line_type_1 length=0.3450109955535503
new line.223 phases=1 bus1=162.1 bus2=144.1 linecode=singapore_line_type_1 length=0.13076841860087
new line.224 phases=1 bus1=144.1 bus2=133.1 linecode=singapore_line_type_1 length=0.0339836530118225
new line.225 phases=1 bus1=3.1 bus2=82.1 linecode=singapore_line_type_1 length=0.4260976236561875
new line.226 phases=1 bus1=82.1 bus2=186.1 linecode=singapore_line_type_3 length=0.174386579683628
new line.227 phases=1 bus1=186.1 bus2=141.1 linecode=singapore_line_type_3 length=0.201377117374658
new line.228 phases=1 bus1=3.1 bus2=136.1 linecode=singapore_line_type_3 length=0.4081501715763235
new line.229 phases=1 bus1=136.1 bus2=137.1 linecode=singapore_line_type_3 length=0.1914824964600819
new line.230 phases=1 bus1=137.1 bus2=194.1 linecode=singapore_line_type_3 length=0.2085709174691168
new line.231 phases=1 bus1=194.1 bus2=201.1 linecode=singapore_line_type_3 length=0.2899683346372926
new line.232 phases=1 bus1=201.1 bus2=202.1 linecode=singapore_line_type_3 length=0.1011778054438617
new line.233 phases=1 bus1=136.1 bus2=120.1 linecode=singapore_line_type_3 length=0.1646183917172319
new line.234 phases=1 bus1=120.1 bus2=119.1 linecode=singapore_line_type_3 length=0.1461826143913557
new line.235 phases=1 bus1=119.1 bus2=112.1 linecode=singapore_line_type_3 length=0.1297740723249972
new line.236 phases=1 bus1=112.1 bus2=111.1 linecode=singapore_line_type_3 length=0.1944064995569963
new line.237 phases=1 bus1=202.1 bus2=84.1 linecode=singapore_line_type_3 length=0.1716487338767708
new line.238 phases=1 bus1=111.1 bus2=63.1 linecode=singapore_line_type_3 length=0.2578215253419654
new line.239 phases=1 bus1=63.1 bus2=91.1 linecode=singapore_line_type_3 length=0.16830094873853
new line.240 phases=1 bus1=91.1 bus2=48.1 linecode=singapore_line_type_3 length=0.1352241320444184
new line.241 phases=1 bus1=48.1 bus2=94.1 linecode=singapore_line_type_3 length=0.1458787168092097
new line.242 phases=1 bus1=94.1 bus2=89.1 linecode=singapore_line_type_3 length=0.1919939465931003
new line.243 phases=1 bus1=202.1 bus2=200.1 linecode=singapore_line_type_3 length=0.1827572781648358
new line.244 phases=1 bus1=89.1 bus2=179.1 linecode=singapore_line_type_3 length=0.348789613613738
new line.245 phases=1 bus1=200.1 bus2=100.1 linecode=singapore_line_type_3 length=0.1128004403108852
new line.246 phases=1 bus1=179.1 bus2=88.1 linecode=singapore_line_type_3 length=0.2473078514657729
new line.247 phases=1 bus1=63.1 bus2=61.1 linecode=singapore_line_type_3 length=0.1489801403208601
new line.248 phases=1 bus1=111.1 bus2=50.1 linecode=singapore_line_type_3 length=0.2110930024535718
new line.249 phases=1 bus1=88.1 bus2=199.1 linecode=singapore_line_type_3 length=0.1285338845730116
new line.250 phases=1 bus1=100.1 bus2=90.1 linecode=singapore_line_type_3 length=0.0918286392480083
new line.251 phases=1 bus1=88.1 bus2=87.1 linecode=singapore_line_type_3 length=0.083622465623607
new line.252 phases=1 bus1=61.1 bus2=44.1 linecode=singapore_line_type_3 length=0.1048748377624139
new line.253 phases=1 bus1=50.1 bus2=49.1 linecode=singapore_line_type_3 length=0.1803800405449291
new line.254 phases=1 bus1=48.1 bus2=47.1 linecode=singapore_line_type_3 length=0.1568837476325512
new line.255 phases=1 bus1=199.1 bus2=122.1 linecode=singapore_line_type_3 length=0.1343459563985615
new line.256 phases=1 bus1=87.1 bus2=25.1 linecode=singapore_line_type_3 length=0.1506483665385612
new line.257 phases=1 bus1=3.1 bus2=180.1 linecode=singapore_line_type_1 length=0.8072295069872404
new line.258 phases=1 bus1=180.1 bus2=241.1 linecode=singapore_line_type_1 length=0.9329049197517856
new line.259 phases=1 bus1=241.1 bus2=211.1 linecode=singapore_line_type_1 length=0.1265225400354568
new line.260 phases=1 bus1=211.1 bus2=78.1 linecode=singapore_line_type_1 length=0.5159306127338437
new line.261 phases=1 bus1=78.1 bus2=93.1 linecode=singapore_line_type_1 length=0.3365152980675359
new line.262 phases=1 bus1=211.1 bus2=212.1 linecode=singapore_line_type_3 length=0.1592696564955839
new line.263 phases=1 bus1=212.1 bus2=214.1 linecode=singapore_line_type_3 length=0.2019982612170546
new line.264 phases=1 bus1=214.1 bus2=243.1 linecode=singapore_line_type_3 length=0.1408846110436046
new line.265 phases=1 bus1=243.1 bus2=242.1 linecode=singapore_line_type_3 length=0.1095478808912904
new line.266 phases=1 bus1=93.1 bus2=28.1 linecode=singapore_line_type_3 length=0.0141167356049358
new line.267 phases=1 bus1=242.1 bus2=244.1 linecode=singapore_line_type_3 length=0.1077013598409496
new line.268 phases=1 bus1=244.1 bus2=216.1 linecode=singapore_line_type_3 length=0.1272580774468909
new line.269 phases=1 bus1=216.1 bus2=215.1 linecode=singapore_line_type_3 length=0.1452149849745677
new line.270 phases=1 bus1=3.1 bus2=182.1 linecode=singapore_line_type_1 length=0.2827419159452
new line.271 phases=1 bus1=182.1 bus2=277.1 linecode=singapore_line_type_1 length=0.286772626729501
new line.272 phases=1 bus1=277.1 bus2=109.1 linecode=singapore_line_type_1 length=0.2462907764703319
new line.273 phases=1 bus1=109.1 bus2=276.1 linecode=singapore_line_type_1 length=0.1639060836038584
new line.274 phases=1 bus1=276.1 bus2=275.1 linecode=singapore_line_type_1 length=0.2393170481421831
new line.275 phases=1 bus1=275.1 bus2=343.1 linecode=singapore_line_type_1 length=0.14815590816292
new line.276 phases=1 bus1=343.1 bus2=352.1 linecode=singapore_line_type_3 length=0.0873650315460722
new line.277 phases=1 bus1=352.1 bus2=372.1 linecode=singapore_line_type_3 length=0.154879129980916
new line.278 phases=1 bus1=372.1 bus2=350.1 linecode=singapore_line_type_3 length=0.0882191220427572
new line.279 phases=1 bus1=352.1 bus2=371.1 linecode=singapore_line_type_3 length=0.1207982374603117
new line.280 phases=1 bus1=350.1 bus2=351.1 linecode=singapore_line_type_3 length=0.1111875044250762
new line.281 phases=1 bus1=182.1 bus2=192.1 linecode=singapore_line_type_3 length=0.2389702938358637
new line.282 phases=1 bus1=3.1 bus2=191.1 linecode=singapore_line_type_1 length=0.3616356998590782
new line.283 phases=1 bus1=191.1 bus2=391.1 linecode=singapore_line_type_1 length=0.5676561143632398
new line.284 phases=1 bus1=391.1 bus2=7.1 linecode=singapore_line_type_1 length=0.1016004319009831
new line.285 phases=1 bus1=7.1 bus2=52.1 linecode=singapore_line_type_3 length=0.076374616273893
new line.286 phases=1 bus1=52.1 bus2=268.1 linecode=singapore_line_type_3 length=0.0676068407306201
new line.287 phases=1 bus1=3.1 bus2=193.1 linecode=singapore_line_type_1 length=0.2386073534302825
new line.288 phases=1 bus1=193.1 bus2=51.1 linecode=singapore_line_type_1 length=0.4835707875463226
new line.289 phases=1 bus1=51.1 bus2=266.1 linecode=singapore_line_type_1 length=0.0898810618200747
new line.290 phases=1 bus1=266.1 bus2=9.1 linecode=singapore_line_type_1 length=0.0631551875885902
new line.291 phases=1 bus1=9.1 bus2=74.1 linecode=singapore_line_type_1 length=0.0771174520691185
new line.292 phases=1 bus1=74.1 bus2=269.1 linecode=singapore_line_type_3 length=0.0478171504319268
new line.293 phases=1 bus1=74.1 bus2=267.1 linecode=singapore_line_type_3 length=0.0607189178977516
new line.294 phases=1 bus1=3.1 bus2=195.1 linecode=singapore_line_type_3 length=0.3436522817752984
new line.295 phases=1 bus1=195.1 bus2=138.1 linecode=singapore_line_type_1 length=0.1264261258615932
new line.296 phases=1 bus1=138.1 bus2=183.1 linecode=singapore_line_type_1 length=0.1434197419047255
new line.297 phases=1 bus1=183.1 bus2=240.1 linecode=singapore_line_type_1 length=1.0281203424943623