#set double_format=%+.12lg
#set profiler=1
#set randomseed=10
#set relax_naming_rules=1
#set savefile=test.xml
#set minimum_timestep=15

clock {
	timezone PST+8PDT;
	starttime '2013-07-01 00:00:00';
	stoptime '2013-07-03 00:00:00';
}

module climate;
module market;
module connection; // FNCS
module powerflow {
	solver_method FBS;
	NR_iteration_limit 100;
}
module residential {
	implicit_enduses NONE;
}
module tape;
module generators;

// only the heating setpoint schedule is used here
#include "../../support/schedules/water_and_setpoint_schedule_v3.glm"
#include "../../support/schedules/appliance_schedules.glm"
#include "outputs_te.glm"

// summer
#define FIXED_PRICE=0.127
// winter
//#define FIXED_PRICE=0.088

object metrics_collector_writer {
     interval 300;
     filename ${METRICS_FILE}; // TE_Challenge_metrics.json
};

object climate {
  name localWeather;
//     tmyfile "../../support/weather/AZ-Tucson_International_Ap.tmy3";
  interpolate QUADRATIC;
	latitude 32.133;
	longitude -111.95;
};

class player {
      double value;
}

object player {
    name PHASE_A;
    file "../players/phase_A.player";
    loop 1;
}
object player {
    name PHASE_B;
    file "../players/phase_B.player";
    loop 1;
}
object player {
    name PHASE_C;
    file "../players/phase_C.player";
    loop 1;
}

#define VSOURCE=66000
//#define VSOURCE=7199.56
object line_configuration {
  name "lcon_singapore_line_type_3_A";
  z11 628.566+523.161j;
  c11 0.0000;
}
object line_configuration {
  name "lcon_singapore_line_type_1_A";
  z11 370.088+523.161j;
  c11 0.0000;
}
object transformer_configuration {
  name "xcon_cimxfmrcode_22kv_92_6";
  power_rating 1000.000;
  primary_voltage 38105.118;
  secondary_voltage 692.820;
  connect_type WYE_WYE;
  resistance 0.011000;
  reactance 0.020000;
}
object transformer_configuration {
  name "xcon_cimxfmrcode_22kv_92_4";
  power_rating 1000.000;
  primary_voltage 38105.118;
  secondary_voltage 692.820;
  connect_type WYE_WYE;
  resistance 0.011000;
  reactance 0.020000;
}
object transformer_configuration {
  name "xcon_cimxfmrcode_22kv_92_5";
  power_rating 1000.000;
  primary_voltage 38105.118;
  secondary_voltage 692.820;
  connect_type WYE_WYE;
  resistance 0.011000;
  reactance 0.020000;
}
object transformer_configuration {
  name "xcon_cimxfmrcode_22kv_92_2";
  power_rating 1000.000;
  primary_voltage 38105.118;
  secondary_voltage 692.820;
  connect_type WYE_WYE;
  resistance 0.011000;
  reactance 0.020000;
}
object transformer_configuration {
  name "xcon_cimxfmrcode_22kv_342_1";
  power_rating 1000.000;
  primary_voltage 38105.118;
  secondary_voltage 692.820;
  connect_type WYE_WYE;
  resistance 0.011000;
  reactance 0.020000;
}
object transformer_configuration {
  name "xcon_cimxfmrcode_22kv_92_3";
  power_rating 1000.000;
  primary_voltage 38105.118;
  secondary_voltage 692.820;
  connect_type WYE_WYE;
  resistance 0.011000;
  reactance 0.020000;
}
object transformer_configuration {
  name "xcon_cimxfmrcode_22kv_135_3";
  power_rating 1000.000;
  primary_voltage 38105.118;
  secondary_voltage 692.820;
  connect_type WYE_WYE;
  resistance 0.011000;
  reactance 0.020000;
}
object transformer_configuration {
  name "xcon_cimxfmrcode_22kv_135_2";
  power_rating 1000.000;
  primary_voltage 38105.118;
  secondary_voltage 692.820;
  connect_type WYE_WYE;
  resistance 0.011000;
  reactance 0.020000;
}
object transformer_configuration {
  name "xcon_cimxfmrcode_22kv_365_1";
  power_rating 1000.000;
  primary_voltage 38105.118;
  secondary_voltage 692.820;
  connect_type WYE_WYE;
  resistance 0.011000;
  reactance 0.020000;
}
object transformer_configuration {
  name "xcon_cimxfmrcode_22kv_92_1";
  power_rating 1000.000;
  primary_voltage 38105.118;
  secondary_voltage 692.820;
  connect_type WYE_WYE;
  resistance 0.011000;
  reactance 0.020000;
}
object transformer_configuration {
  name "xcon_cimxfmrcode_22kv_112_1";
  power_rating 1000.000;
  primary_voltage 38105.118;
  secondary_voltage 692.820;
  connect_type WYE_WYE;
  resistance 0.011000;
  reactance 0.020000;
}
object transformer_configuration {
  name "xcon_cimxfmrcode_22kv_135_1";
  power_rating 1000.000;
  primary_voltage 38105.118;
  secondary_voltage 692.820;
  connect_type WYE_WYE;
  resistance 0.011000;
  reactance 0.020000;
}
object transformer_configuration {
  name "xcon_cimxfmrcode_22kv_388_1";
  power_rating 1000.000;
  primary_voltage 38105.118;
  secondary_voltage 692.820;
  connect_type WYE_WYE;
  resistance 0.011000;
  reactance 0.020000;
}
object transformer_configuration {
  name "xcon_cimxfmrcode_22kv_135_5";
  power_rating 1000.000;
  primary_voltage 38105.118;
  secondary_voltage 692.820;
  connect_type WYE_WYE;
  resistance 0.011000;
  reactance 0.020000;
}
object transformer_configuration {
  name "xcon_cimxfmrcode_22kv_158_1";
  power_rating 1000.000;
  primary_voltage 38105.118;
  secondary_voltage 692.820;
  connect_type WYE_WYE;
  resistance 0.011000;
  reactance 0.020000;
}
object transformer_configuration {
  name "xcon_cimxfmrcode_22kv_135_4";
  power_rating 1000.000;
  primary_voltage 38105.118;
  secondary_voltage 692.820;
  connect_type WYE_WYE;
  resistance 0.011000;
  reactance 0.020000;
}
object transformer_configuration {
  name "xcon_cimxfmrcode_22kv_5_4";
  power_rating 1000.000;
  primary_voltage 38105.118;
  secondary_voltage 692.820;
  connect_type WYE_WYE;
  resistance 0.011000;
  reactance 0.020000;
}
object transformer_configuration {
  name "xcon_cimxfmrcode_22kv_5_2";
  power_rating 1000.000;
  primary_voltage 38105.118;
  secondary_voltage 692.820;
  connect_type WYE_WYE;
  resistance 0.011000;
  reactance 0.020000;
}
object transformer_configuration {
  name "xcon_cimxfmrcode_22kv_5_3";
  power_rating 1000.000;
  primary_voltage 38105.118;
  secondary_voltage 692.820;
  connect_type WYE_WYE;
  resistance 0.011000;
  reactance 0.020000;
}
object transformer_configuration {
  name "xcon_cimxfmrcode_22kv_5_1";
  power_rating 1000.000;
  primary_voltage 38105.118;
  secondary_voltage 692.820;
  connect_type WYE_WYE;
  resistance 0.011000;
  reactance 0.020000;
}
object transformer_configuration {
  name "xcon_cimxfmrcode_22kv_331_3";
  power_rating 1000.000;
  primary_voltage 38105.118;
  secondary_voltage 692.820;
  connect_type WYE_WYE;
  resistance 0.011000;
  reactance 0.020000;
}
object transformer_configuration {
  name "xcon_cimxfmrcode_22kv_210_1";
  power_rating 1000.000;
  primary_voltage 38105.118;
  secondary_voltage 692.820;
  connect_type WYE_WYE;
  resistance 0.011000;
  reactance 0.020000;
}
object transformer_configuration {
  name "xcon_cimxfmrcode_22kv_331_2";
  power_rating 1000.000;
  primary_voltage 38105.118;
  secondary_voltage 692.820;
  connect_type WYE_WYE;
  resistance 0.011000;
  reactance 0.020000;
}
object transformer_configuration {
  name "xcon_cimxfmrcode_22kv_210_2";
  power_rating 1000.000;
  primary_voltage 38105.118;
  secondary_voltage 692.820;
  connect_type WYE_WYE;
  resistance 0.011000;
  reactance 0.020000;
}
object transformer_configuration {
  name "xcon_cimxfmrcode_22kv_279_2";
  power_rating 1000.000;
  primary_voltage 38105.118;
  secondary_voltage 692.820;
  connect_type WYE_WYE;
  resistance 0.011000;
  reactance 0.020000;
}
object transformer_configuration {
  name "xcon_cimxfmrcode_22kv_331_1";
  power_rating 1000.000;
  primary_voltage 38105.118;
  secondary_voltage 692.820;
  connect_type WYE_WYE;
  resistance 0.011000;
  reactance 0.020000;
}
object transformer_configuration {
  name "xcon_cimxfmrcode_22kv_16_1";
  power_rating 1000.000;
  primary_voltage 38105.118;
  secondary_voltage 692.820;
  connect_type WYE_WYE;
  resistance 0.011000;
  reactance 0.020000;
}
object transformer_configuration {
  name "xcon_cimxfmrcode_22kv_210_3";
  power_rating 1000.000;
  primary_voltage 38105.118;
  secondary_voltage 692.820;
  connect_type WYE_WYE;
  resistance 0.011000;
  reactance 0.020000;
}
object transformer_configuration {
  name "xcon_cimxfmrcode_22kv_233_1";
  power_rating 1000.000;
  primary_voltage 38105.118;
  secondary_voltage 692.820;
  connect_type WYE_WYE;
  resistance 0.011000;
  reactance 0.020000;
}
object transformer_configuration {
  name "xcon_cimxfmrcode_22kv_279_1";
  power_rating 1000.000;
  primary_voltage 38105.118;
  secondary_voltage 692.820;
  connect_type WYE_WYE;
  resistance 0.011000;
  reactance 0.020000;
}
object transformer_configuration {
  name "xcon_cimxfmrcode_22kv_210_4";
  power_rating 1000.000;
  primary_voltage 38105.118;
  secondary_voltage 692.820;
  connect_type WYE_WYE;
  resistance 0.011000;
  reactance 0.020000;
}
object transformer_configuration {
  name "xcon_cimxfmrcode_22kv_210_5";
  power_rating 1000.000;
  primary_voltage 38105.118;
  secondary_voltage 692.820;
  connect_type WYE_WYE;
  resistance 0.011000;
  reactance 0.020000;
}
object transformer_configuration {
  name "xcon_cimxfmrcode_22kv_256_1";
  power_rating 1000.000;
  primary_voltage 38105.118;
  secondary_voltage 692.820;
  connect_type WYE_WYE;
  resistance 0.011000;
  reactance 0.020000;
}
object transformer_configuration {
  name "xcon_cimxfmrcode_22kv_279_5";
  power_rating 1000.000;
  primary_voltage 38105.118;
  secondary_voltage 692.820;
  connect_type WYE_WYE;
  resistance 0.011000;
  reactance 0.020000;
}
object transformer_configuration {
  name "xcon_cimxfmrcode_22kv_279_4";
  power_rating 1000.000;
  primary_voltage 38105.118;
  secondary_voltage 692.820;
  connect_type WYE_WYE;
  resistance 0.011000;
  reactance 0.020000;
}
object transformer_configuration {
  name "xcon_cimxfmrcode_22kv_279_3";
  power_rating 1000.000;
  primary_voltage 38105.118;
  secondary_voltage 692.820;
  connect_type WYE_WYE;
  resistance 0.011000;
  reactance 0.020000;
}
object transformer_configuration {
  name "xcon_cimxfmrcode_22kv_39_1";
  power_rating 1000.000;
  primary_voltage 38105.118;
  secondary_voltage 692.820;
  connect_type WYE_WYE;
  resistance 0.011000;
  reactance 0.020000;
}
object transformer_configuration {
  name "xcon_cimxfmrcode_22kv_81_3";
  power_rating 1000.000;
  primary_voltage 38105.118;
  secondary_voltage 692.820;
  connect_type WYE_WYE;
  resistance 0.011000;
  reactance 0.020000;
}
object transformer_configuration {
  name "xcon_cimxfmrcode_22kv_81_2";
  power_rating 1000.000;
  primary_voltage 38105.118;
  secondary_voltage 692.820;
  connect_type WYE_WYE;
  resistance 0.011000;
  reactance 0.020000;
}
object transformer_configuration {
  name "xcon_cimxfmrcode_22kv_81_5";
  power_rating 1000.000;
  primary_voltage 38105.118;
  secondary_voltage 692.820;
  connect_type WYE_WYE;
  resistance 0.011000;
  reactance 0.020000;
}
object transformer_configuration {
  name "xcon_cimxfmrcode_22kv_353_1";
  power_rating 1000.000;
  primary_voltage 38105.118;
  secondary_voltage 692.820;
  connect_type WYE_WYE;
  resistance 0.011000;
  reactance 0.020000;
}
object transformer_configuration {
  name "xcon_cimxfmrcode_22kv_81_4";
  power_rating 1000.000;
  primary_voltage 38105.118;
  secondary_voltage 692.820;
  connect_type WYE_WYE;
  resistance 0.011000;
  reactance 0.020000;
}
object transformer_configuration {
  name "xcon_cimxfmrcode_22kv_376_1";
  power_rating 1000.000;
  primary_voltage 38105.118;
  secondary_voltage 692.820;
  connect_type WYE_WYE;
  resistance 0.011000;
  reactance 0.020000;
}
object transformer_configuration {
  name "xcon_cimxfmrcode_22kv_101_1";
  power_rating 1000.000;
  primary_voltage 38105.118;
  secondary_voltage 692.820;
  connect_type WYE_WYE;
  resistance 0.011000;
  reactance 0.020000;
}
object transformer_configuration {
  name "xcon_cimxfmrcode_22kv_124_1";
  power_rating 1000.000;
  primary_voltage 38105.118;
  secondary_voltage 692.820;
  connect_type WYE_WYE;
  resistance 0.011000;
  reactance 0.020000;
}
object transformer_configuration {
  name "xcon_cimxfmrcode_22kv_81_1";
  power_rating 1000.000;
  primary_voltage 38105.118;
  secondary_voltage 692.820;
  connect_type WYE_WYE;
  resistance 0.011000;
  reactance 0.020000;
}
object transformer_configuration {
  name "xcon_cimxfmrcode_22kv_147_1";
  power_rating 1000.000;
  primary_voltage 38105.118;
  secondary_voltage 692.820;
  connect_type WYE_WYE;
  resistance 0.011000;
  reactance 0.020000;
}
object transformer_configuration {
  name "xcon_cimxfmrcode_22kv_320_1";
  power_rating 1000.000;
  primary_voltage 38105.118;
  secondary_voltage 692.820;
  connect_type WYE_WYE;
  resistance 0.011000;
  reactance 0.020000;
}
object transformer_configuration {
  name "xcon_cimxfmrcode_22kv_222_1";
  power_rating 1000.000;
  primary_voltage 38105.118;
  secondary_voltage 692.820;
  connect_type WYE_WYE;
  resistance 0.011000;
  reactance 0.020000;
}
object transformer_configuration {
  name "xcon_cimxfmrcode_22kv_268_1";
  power_rating 1000.000;
  primary_voltage 38105.118;
  secondary_voltage 692.820;
  connect_type WYE_WYE;
  resistance 0.011000;
  reactance 0.020000;
}
object transformer_configuration {
  name "xcon_cimxfmrcode_22kv_245_1";
  power_rating 1000.000;
  primary_voltage 38105.118;
  secondary_voltage 692.820;
  connect_type WYE_WYE;
  resistance 0.011000;
  reactance 0.020000;
}
object transformer_configuration {
  name "xcon_cimxfmrcode_22kv_28_1";
  power_rating 1000.000;
  primary_voltage 38105.118;
  secondary_voltage 692.820;
  connect_type WYE_WYE;
  resistance 0.011000;
  reactance 0.020000;
}
object transformer_configuration {
  name "xcon_cimxfmrcode_22kv_111_1";
  power_rating 1000.000;
  primary_voltage 38105.118;
  secondary_voltage 692.820;
  connect_type WYE_WYE;
  resistance 0.011000;
  reactance 0.020000;
}
object transformer_configuration {
  name "xcon_cimxfmrcode_22kv_134_4";
  power_rating 1000.000;
  primary_voltage 38105.118;
  secondary_voltage 692.820;
  connect_type WYE_WYE;
  resistance 0.011000;
  reactance 0.020000;
}
object transformer_configuration {
  name "xcon_cimxfmrcode_22kv_343_1";
  power_rating 1000.000;
  primary_voltage 38105.118;
  secondary_voltage 692.820;
  connect_type WYE_WYE;
  resistance 0.011000;
  reactance 0.020000;
}
object transformer_configuration {
  name "xcon_cimxfmrcode_22kv_366_1";
  power_rating 1000.000;
  primary_voltage 38105.118;
  secondary_voltage 692.820;
  connect_type WYE_WYE;
  resistance 0.011000;
  reactance 0.020000;
}
object transformer_configuration {
  name "xcon_cimxfmrcode_22kv_389_1";
  power_rating 1000.000;
  primary_voltage 38105.118;
  secondary_voltage 692.820;
  connect_type WYE_WYE;
  resistance 0.011000;
  reactance 0.020000;
}
object transformer_configuration {
  name "xcon_cimxfmrcode_22kv_91_1";
  power_rating 1000.000;
  primary_voltage 38105.118;
  secondary_voltage 692.820;
  connect_type WYE_WYE;
  resistance 0.011000;
  reactance 0.020000;
}
object transformer_configuration {
  name "xcon_cimxfmrcode_22kv_134_3";
  power_rating 1000.000;
  primary_voltage 38105.118;
  secondary_voltage 692.820;
  connect_type WYE_WYE;
  resistance 0.011000;
  reactance 0.020000;
}
object transformer_configuration {
  name "xcon_cimxfmrcode_22kv_343_2";
  power_rating 1000.000;
  primary_voltage 38105.118;
  secondary_voltage 692.820;
  connect_type WYE_WYE;
  resistance 0.011000;
  reactance 0.020000;
}
object transformer_configuration {
  name "xcon_cimxfmrcode_22kv_134_2";
  power_rating 1000.000;
  primary_voltage 38105.118;
  secondary_voltage 692.820;
  connect_type WYE_WYE;
  resistance 0.011000;
  reactance 0.020000;
}
object transformer_configuration {
  name "xcon_cimxfmrcode_22kv_343_3";
  power_rating 1000.000;
  primary_voltage 38105.118;
  secondary_voltage 692.820;
  connect_type WYE_WYE;
  resistance 0.011000;
  reactance 0.020000;
}
object transformer_configuration {
  name "xcon_cimxfmrcode_22kv_134_1";
  power_rating 1000.000;
  primary_voltage 38105.118;
  secondary_voltage 692.820;
  connect_type WYE_WYE;
  resistance 0.011000;
  reactance 0.020000;
}
object transformer_configuration {
  name "xcon_cimxfmrcode_22kv_343_4";
  power_rating 1000.000;
  primary_voltage 38105.118;
  secondary_voltage 692.820;
  connect_type WYE_WYE;
  resistance 0.011000;
  reactance 0.020000;
}
object transformer_configuration {
  name "xcon_cimxfmrcode_22kv_343_5";
  power_rating 1000.000;
  primary_voltage 38105.118;
  secondary_voltage 692.820;
  connect_type WYE_WYE;
  resistance 0.011000;
  reactance 0.020000;
}
object transformer_configuration {
  name "xcon_cimxfmrcode_22kv_157_1";
  power_rating 1000.000;
  primary_voltage 38105.118;
  secondary_voltage 692.820;
  connect_type WYE_WYE;
  resistance 0.011000;
  reactance 0.020000;
}
object transformer_configuration {
  name "xcon_cimxfmrcode_22kv_134_5";
  power_rating 1000.000;
  primary_voltage 38105.118;
  secondary_voltage 692.820;
  connect_type WYE_WYE;
  resistance 0.011000;
  reactance 0.020000;
}
object transformer_configuration {
  name "xcon_cimxfmrcode_22kv_4_1";
  power_rating 1000.000;
  primary_voltage 38105.118;
  secondary_voltage 692.820;
  connect_type WYE_WYE;
  resistance 0.011000;
  reactance 0.020000;
}
object transformer_configuration {
  name "xcon_cimxfmrcode_22kv_232_1";
  power_rating 1000.000;
  primary_voltage 38105.118;
  secondary_voltage 692.820;
  connect_type WYE_WYE;
  resistance 0.011000;
  reactance 0.020000;
}
object transformer_configuration {
  name "xcon_cimxfmrcode_22kv_15_1";
  power_rating 1000.000;
  primary_voltage 38105.118;
  secondary_voltage 692.820;
  connect_type WYE_WYE;
  resistance 0.011000;
  reactance 0.020000;
}
object transformer_configuration {
  name "xcon_cimxfmrcode_22kv_38_1";
  power_rating 1000.000;
  primary_voltage 38105.118;
  secondary_voltage 692.820;
  connect_type WYE_WYE;
  resistance 0.011000;
  reactance 0.020000;
}
object transformer_configuration {
  name "xcon_cimxfmrcode_22kv_15_2";
  power_rating 1000.000;
  primary_voltage 38105.118;
  secondary_voltage 692.820;
  connect_type WYE_WYE;
  resistance 0.011000;
  reactance 0.020000;
}
object transformer_configuration {
  name "xcon_cimxfmrcode_22kv_330_1";
  power_rating 1000.000;
  primary_voltage 38105.118;
  secondary_voltage 692.820;
  connect_type WYE_WYE;
  resistance 0.011000;
  reactance 0.020000;
}
object transformer_configuration {
  name "xcon_cimxfmrcode_22kv_255_1";
  power_rating 1000.000;
  primary_voltage 38105.118;
  secondary_voltage 692.820;
  connect_type WYE_WYE;
  resistance 0.011000;
  reactance 0.020000;
}
object transformer_configuration {
  name "xcon_cimxfmrcode_22kv_278_1";
  power_rating 1000.000;
  primary_voltage 38105.118;
  secondary_voltage 692.820;
  connect_type WYE_WYE;
  resistance 0.011000;
  reactance 0.020000;
}
object transformer_configuration {
  name "xcon_cimxfmrcode_22kv_15_3";
  power_rating 1000.000;
  primary_voltage 38105.118;
  secondary_voltage 692.820;
  connect_type WYE_WYE;
  resistance 0.011000;
  reactance 0.020000;
}
object transformer_configuration {
  name "xcon_cimxfmrcode_22kv_80_4";
  power_rating 1000.000;
  primary_voltage 38105.118;
  secondary_voltage 692.820;
  connect_type WYE_WYE;
  resistance 0.011000;
  reactance 0.020000;
}
object transformer_configuration {
  name "xcon_cimxfmrcode_22kv_100_1";
  power_rating 1000.000;
  primary_voltage 38105.118;
  secondary_voltage 692.820;
  connect_type WYE_WYE;
  resistance 0.011000;
  reactance 0.020000;
}
object transformer_configuration {
  name "xcon_cimxfmrcode_22kv_80_3";
  power_rating 1000.000;
  primary_voltage 38105.118;
  secondary_voltage 692.820;
  connect_type WYE_WYE;
  resistance 0.011000;
  reactance 0.020000;
}
object transformer_configuration {
  name "xcon_cimxfmrcode_22kv_80_5";
  power_rating 1000.000;
  primary_voltage 38105.118;
  secondary_voltage 692.820;
  connect_type WYE_WYE;
  resistance 0.011000;
  reactance 0.020000;
}
object transformer_configuration {
  name "xcon_cimxfmrcode_22kv_354_1";
  power_rating 1000.000;
  primary_voltage 38105.118;
  secondary_voltage 692.820;
  connect_type WYE_WYE;
  resistance 0.011000;
  reactance 0.020000;
}
object transformer_configuration {
  name "xcon_cimxfmrcode_22kv_377_1";
  power_rating 1000.000;
  primary_voltage 38105.118;
  secondary_voltage 692.820;
  connect_type WYE_WYE;
  resistance 0.011000;
  reactance 0.020000;
}
object transformer_configuration {
  name "xcon_cimxfmrcode_22kv_80_2";
  power_rating 1000.000;
  primary_voltage 38105.118;
  secondary_voltage 692.820;
  connect_type WYE_WYE;
  resistance 0.011000;
  reactance 0.020000;
}
object transformer_configuration {
  name "xcon_cimxfmrcode_22kv_123_1";
  power_rating 1000.000;
  primary_voltage 38105.118;
  secondary_voltage 692.820;
  connect_type WYE_WYE;
  resistance 0.011000;
  reactance 0.020000;
}
object transformer_configuration {
  name "xcon_cimxfmrcode_22kv_80_1";
  power_rating 1000.000;
  primary_voltage 38105.118;
  secondary_voltage 692.820;
  connect_type WYE_WYE;
  resistance 0.011000;
  reactance 0.020000;
}
object transformer_configuration {
  name "xcon_cimxfmrcode_22kv_146_1";
  power_rating 1000.000;
  primary_voltage 38105.118;
  secondary_voltage 692.820;
  connect_type WYE_WYE;
  resistance 0.011000;
  reactance 0.020000;
}
object transformer_configuration {
  name "xcon_cimxfmrcode_22kv_169_1";
  power_rating 1000.000;
  primary_voltage 38105.118;
  secondary_voltage 692.820;
  connect_type WYE_WYE;
  resistance 0.011000;
  reactance 0.020000;
}
object transformer_configuration {
  name "xcon_cimxfmrcode_22kv_221_1";
  power_rating 1000.000;
  primary_voltage 38105.118;
  secondary_voltage 692.820;
  connect_type WYE_WYE;
  resistance 0.011000;
  reactance 0.020000;
}
object transformer_configuration {
  name "xcon_cimxfmrcode_22kv_27_1";
  power_rating 1000.000;
  primary_voltage 38105.118;
  secondary_voltage 692.820;
  connect_type WYE_WYE;
  resistance 0.011000;
  reactance 0.020000;
}
object transformer_configuration {
  name "xcon_cimxfmrcode_22kv_244_1";
  power_rating 1000.000;
  primary_voltage 38105.118;
  secondary_voltage 692.820;
  connect_type WYE_WYE;
  resistance 0.011000;
  reactance 0.020000;
}
object transformer_configuration {
  name "xcon_cimxfmrcode_22kv_267_1";
  power_rating 1000.000;
  primary_voltage 38105.118;
  secondary_voltage 692.820;
  connect_type WYE_WYE;
  resistance 0.011000;
  reactance 0.020000;
}
object transformer_configuration {
  name "xcon_cimxfmrcode_22kv_71_1";
  power_rating 1000.000;
  primary_voltage 38105.118;
  secondary_voltage 692.820;
  connect_type WYE_WYE;
  resistance 0.011000;
  reactance 0.020000;
}
object transformer_configuration {
  name "xcon_cimxfmrcode_22kv_94_1";
  power_rating 1000.000;
  primary_voltage 38105.118;
  secondary_voltage 692.820;
  connect_type WYE_WYE;
  resistance 0.011000;
  reactance 0.020000;
}
object transformer_configuration {
  name "xcon_cimxfmrcode_22kv_114_1";
  power_rating 1000.000;
  primary_voltage 38105.118;
  secondary_voltage 692.820;
  connect_type WYE_WYE;
  resistance 0.011000;
  reactance 0.020000;
}
object transformer_configuration {
  name "xcon_cimxfmrcode_22kv_137_1";
  power_rating 1000.000;
  primary_voltage 38105.118;
  secondary_voltage 692.820;
  connect_type WYE_WYE;
  resistance 0.011000;
  reactance 0.020000;
}
object transformer_configuration {
  name "xcon_cimxfmrcode_22kv_344_1";
  power_rating 1000.000;
  primary_voltage 38105.118;
  secondary_voltage 692.820;
  connect_type WYE_WYE;
  resistance 0.011000;
  reactance 0.020000;
}
object transformer_configuration {
  name "xcon_cimxfmrcode_22kv_367_1";
  power_rating 1000.000;
  primary_voltage 38105.118;
  secondary_voltage 692.820;
  connect_type WYE_WYE;
  resistance 0.011000;
  reactance 0.020000;
}
object transformer_configuration {
  name "xcon_cimxfmrcode_22kv_310_1";
  power_rating 1000.000;
  primary_voltage 38105.118;
  secondary_voltage 692.820;
  connect_type WYE_WYE;
  resistance 0.011000;
  reactance 0.020000;
}
object transformer_configuration {
  name "xcon_cimxfmrcode_22kv_333_1";
  power_rating 1000.000;
  primary_voltage 38105.118;
  secondary_voltage 692.820;
  connect_type WYE_WYE;
  resistance 0.011000;
  reactance 0.020000;
}
object transformer_configuration {
  name "xcon_cimxfmrcode_22kv_3_1";
  power_rating 1000.000;
  primary_voltage 38105.118;
  secondary_voltage 692.820;
  connect_type WYE_WYE;
  resistance 0.011000;
  reactance 0.020000;
}
object transformer_configuration {
  name "xcon_cimxfmrcode_22kv_212_1";
  power_rating 1000.000;
  primary_voltage 38105.118;
  secondary_voltage 692.820;
  connect_type WYE_WYE;
  resistance 0.011000;
  reactance 0.020000;
}
object transformer_configuration {
  name "xcon_cimxfmrcode_22kv_258_1";
  power_rating 1000.000;
  primary_voltage 38105.118;
  secondary_voltage 692.820;
  connect_type WYE_WYE;
  resistance 0.011000;
  reactance 0.020000;
}
object transformer_configuration {
  name "xcon_cimxfmrcode_22kv_235_1";
  power_rating 1000.000;
  primary_voltage 38105.118;
  secondary_voltage 692.820;
  connect_type WYE_WYE;
  resistance 0.011000;
  reactance 0.020000;
}
object transformer_configuration {
  name "xcon_cimxfmrcode_22kv_18_1";
  power_rating 1000.000;
  primary_voltage 38105.118;
  secondary_voltage 692.820;
  connect_type WYE_WYE;
  resistance 0.011000;
  reactance 0.020000;
}
object transformer_configuration {
  name "xcon_cimxfmrcode_22kv_83_5";
  power_rating 1000.000;
  primary_voltage 38105.118;
  secondary_voltage 692.820;
  connect_type WYE_WYE;
  resistance 0.011000;
  reactance 0.020000;
}
object transformer_configuration {
  name "xcon_cimxfmrcode_22kv_83_4";
  power_rating 1000.000;
  primary_voltage 38105.118;
  secondary_voltage 692.820;
  connect_type WYE_WYE;
  resistance 0.011000;
  reactance 0.020000;
}
object transformer_configuration {
  name "xcon_cimxfmrcode_22kv_60_1";
  power_rating 1000.000;
  primary_voltage 38105.118;
  secondary_voltage 692.820;
  connect_type WYE_WYE;
  resistance 0.011000;
  reactance 0.020000;
}
object transformer_configuration {
  name "xcon_cimxfmrcode_22kv_83_1";
  power_rating 1000.000;
  primary_voltage 38105.118;
  secondary_voltage 692.820;
  connect_type WYE_WYE;
  resistance 0.011000;
  reactance 0.020000;
}
object transformer_configuration {
  name "xcon_cimxfmrcode_22kv_83_3";
  power_rating 1000.000;
  primary_voltage 38105.118;
  secondary_voltage 692.820;
  connect_type WYE_WYE;
  resistance 0.011000;
  reactance 0.020000;
}
object transformer_configuration {
  name "xcon_cimxfmrcode_22kv_83_2";
  power_rating 1000.000;
  primary_voltage 38105.118;
  secondary_voltage 692.820;
  connect_type WYE_WYE;
  resistance 0.011000;
  reactance 0.020000;
}
object transformer_configuration {
  name "xcon_cimxfmrcode_22kv_103_1";
  power_rating 1000.000;
  primary_voltage 38105.118;
  secondary_voltage 692.820;
  connect_type WYE_WYE;
  resistance 0.011000;
  reactance 0.020000;
}
object transformer_configuration {
  name "xcon_cimxfmrcode_22kv_126_1";
  power_rating 1000.000;
  primary_voltage 38105.118;
  secondary_voltage 692.820;
  connect_type WYE_WYE;
  resistance 0.011000;
  reactance 0.020000;
}
object transformer_configuration {
  name "xcon_cimxfmrcode_22kv_149_1";
  power_rating 1000.000;
  primary_voltage 38105.118;
  secondary_voltage 692.820;
  connect_type WYE_WYE;
  resistance 0.011000;
  reactance 0.020000;
}
object transformer_configuration {
  name "xcon_cimxfmrcode_22kv_355_1";
  power_rating 1000.000;
  primary_voltage 38105.118;
  secondary_voltage 692.820;
  connect_type WYE_WYE;
  resistance 0.011000;
  reactance 0.020000;
}
object transformer_configuration {
  name "xcon_cimxfmrcode_22kv_355_2";
  power_rating 1000.000;
  primary_voltage 38105.118;
  secondary_voltage 692.820;
  connect_type WYE_WYE;
  resistance 0.011000;
  reactance 0.020000;
}
object transformer_configuration {
  name "xcon_cimxfmrcode_22kv_355_3";
  power_rating 1000.000;
  primary_voltage 38105.118;
  secondary_voltage 692.820;
  connect_type WYE_WYE;
  resistance 0.011000;
  reactance 0.020000;
}
object transformer_configuration {
  name "xcon_cimxfmrcode_22kv_378_1";
  power_rating 1000.000;
  primary_voltage 38105.118;
  secondary_voltage 692.820;
  connect_type WYE_WYE;
  resistance 0.011000;
  reactance 0.020000;
}
object transformer_configuration {
  name "xcon_cimxfmrcode_22kv_355_4";
  power_rating 1000.000;
  primary_voltage 38105.118;
  secondary_voltage 692.820;
  connect_type WYE_WYE;
  resistance 0.011000;
  reactance 0.020000;
}
object transformer_configuration {
  name "xcon_cimxfmrcode_22kv_355_5";
  power_rating 1000.000;
  primary_voltage 38105.118;
  secondary_voltage 692.820;
  connect_type WYE_WYE;
  resistance 0.011000;
  reactance 0.020000;
}
object transformer_configuration {
  name "xcon_cimxfmrcode_22kv_322_6";
  power_rating 1000.000;
  primary_voltage 38105.118;
  secondary_voltage 692.820;
  connect_type WYE_WYE;
  resistance 0.011000;
  reactance 0.020000;
}
object transformer_configuration {
  name "xcon_cimxfmrcode_22kv_322_5";
  power_rating 1000.000;
  primary_voltage 38105.118;
  secondary_voltage 692.820;
  connect_type WYE_WYE;
  resistance 0.011000;
  reactance 0.020000;
}
object transformer_configuration {
  name "xcon_cimxfmrcode_22kv_322_4";
  power_rating 1000.000;
  primary_voltage 38105.118;
  secondary_voltage 692.820;
  connect_type WYE_WYE;
  resistance 0.011000;
  reactance 0.020000;
}
object transformer_configuration {
  name "xcon_cimxfmrcode_22kv_322_3";
  power_rating 1000.000;
  primary_voltage 38105.118;
  secondary_voltage 692.820;
  connect_type WYE_WYE;
  resistance 0.011000;
  reactance 0.020000;
}
object transformer_configuration {
  name "xcon_cimxfmrcode_22kv_322_2";
  power_rating 1000.000;
  primary_voltage 38105.118;
  secondary_voltage 692.820;
  connect_type WYE_WYE;
  resistance 0.011000;
  reactance 0.020000;
}
object transformer_configuration {
  name "xcon_cimxfmrcode_22kv_322_1";
  power_rating 1000.000;
  primary_voltage 38105.118;
  secondary_voltage 692.820;
  connect_type WYE_WYE;
  resistance 0.011000;
  reactance 0.020000;
}
object transformer_configuration {
  name "xcon_cimxfmrcode_22kv_190_1";